# Link-MT3DMS file for MODFLOW-2000, generated by PMWIN 
OUTPUT_FILE_NAME   C:/Users/huan1428/Documents/esci5331_hydro_modeling/assignment_5/model_runs/2d_flow/test.flo
OUTPUT_FILE_UNIT   333 
OUTPUT_FILE_HEADER Standard 
OUTPUT_FILE_FORMAT Unformatted 
